OPT_V10/Two_days_MYC3/powerflow_results_t25.txt
Pandapower Network Debug Info
==================================================

BUS:
       vm_pu  va_degree      p_mw    q_mvar
0   0.992958   0.151482  0.001158  0.000970
1   0.988847   0.247740  0.001235  0.001834
2   0.985003   0.349764  0.001672  0.003221
3   0.988944   0.258488  0.002364  0.004590
4   0.999884   0.000203  0.011205  0.009611
5   0.999871   0.000151  0.012856  0.007634
6   0.999861   0.000145  0.012358  0.009431
7   0.999929   0.000279  0.000000  0.000000
8   0.999928   0.000285  0.000000  0.000000
9   1.000000   0.000000 -0.043000 -0.042392
10  1.000000   0.000006  0.000000  0.000000
--------------------------------------------------

LINE:
   p_from_mw  q_from_mvar   p_to_mw  q_to_mvar         pl_mw       ql_mvar  i_from_ka   i_to_ka      i_ka  vm_from_pu  va_from_degree  vm_to_pu  va_to_degree  loading_percent
0   0.042990     0.038392 -0.042987  -0.038390  3.249473e-06  2.533668e-06   0.002218  0.002218  0.002218    1.000000        0.000006  0.999929      0.000279         0.964557
1   0.036422     0.026677 -0.036420  -0.026676  1.576319e-06  1.229082e-06   0.001738  0.001738  0.001738    0.999929        0.000279  0.999884      0.000203         0.755567
2   0.006555     0.010713 -0.006481  -0.010656  7.378971e-05  5.753505e-05   0.018129  0.018129  0.018129    0.999928        0.000285  0.992958      0.151482         7.882359
3  -0.025215    -0.017065  0.025215   0.017065  3.206549e-07  2.500199e-07   0.001172  0.001172  0.001172    0.999871        0.000151  0.999884      0.000203         0.509580
4  -0.012358    -0.009431  0.012359   0.009431  1.182264e-07  9.218307e-08   0.000598  0.000598  0.000598    0.999861        0.000145  0.999871      0.000151         0.260192
5  -0.002920    -0.005065  0.002941   0.005081  2.068241e-05  1.612642e-05   0.008534  0.008534  0.008534    0.988847        0.247740  0.992958      0.151482         3.710470
6  -0.002364    -0.004590  0.002383   0.004604  1.820102e-05  1.419164e-05   0.007536  0.007536  0.007536    0.988944        0.258488  0.992958      0.151482         3.276527
7  -0.001672    -0.003221  0.001685   0.003231  1.228284e-05  9.577129e-06   0.005319  0.005319  0.005319    0.985003        0.349764  0.988847      0.247740         2.312459
--------------------------------------------------

TRAFO:
    p_hv_mw  q_hv_mvar   p_lv_mw  q_lv_mvar    pl_mw  ql_mvar   i_hv_ka   i_lv_ka  vm_hv_pu  va_hv_degree  vm_lv_pu  va_lv_degree  loading_percent
0  0.006565   0.011713 -0.006555  -0.010713  0.00001    0.001  0.000517  0.018129  0.999929      0.000279  0.999928      0.000285         0.134284
1  0.043000   0.042392 -0.042990  -0.038392  0.00001    0.004  0.000498  0.002218  1.000000      0.000000  1.000000      0.000006         0.150958
--------------------------------------------------
